CRYSTAL
PRIMVEC
 7.99999943386483 0.00000000000000 0.00000000000000
 0.00000000000000 7.99999943386483 0.00000000000000
 0.00000000000000 0.00000000000000 7.99999943386483
PRIMCOORD
 3 1
  8     4.00000000000000     4.00000000000000     4.26213644410000     0.00000000000000     0.00000000000000    -0.00014385539052
  1     3.23091468200000     4.00000000000000     4.86893177790000    -0.00038525843632     0.00000000000000     0.00007192297094
  1     4.76908531800000     4.00000000000000     4.86893177790000     0.00038525843632     0.00000000000000     0.00007192297094
